** sch_path: /home/fauzann/opamp/mag/pmos_dif.sch
.subckt pmos_dif VDD D5 VIN VIP D6 OUT
*.PININFO VIN:I VIP:I OUT:O D6:B D5:B VDD:B
XM6 D6 VIN D5 VDD sky130_fd_pr__pfet_01v8 L=0.5 W=1 nf=1 m=4
XM7 OUT VIP D5 VDD sky130_fd_pr__pfet_01v8 L=0.5 W=1 nf=1 m=4
XM1 D6 D6 D6 VDD sky130_fd_pr__pfet_01v8 L=0.5 W=1 nf=1 m=4
XM2 OUT OUT OUT VDD sky130_fd_pr__pfet_01v8 L=0.5 W=1 nf=1 m=4
.ends
.end
